*SPEF "ieee 1481-1999"
*DESIGN "unigate"
*DATE "11:11:11 Fri 11 11, 1111"
*VENDOR "OpenRCX"
*PROGRAM "Parallel Extraction"
*VERSION "1.0"
*DESIGN_FLOW "NAME_SCOPE LOCAL" "PIN_CAP NONE"
*DIVIDER /
*DELIMITER :
*BUS_DELIMITER []
*T_UNIT 1 NS
*C_UNIT 1 PF
*R_UNIT 1 OHM
*L_UNIT 1 HENRY

*NAME_MAP
*1 io_in[0]
*2 io_in[10]
*3 io_in[11]
*4 io_in[12]
*5 io_in[13]
*6 io_in[14]
*7 io_in[15]
*8 io_in[16]
*9 io_in[17]
*10 io_in[18]
*11 io_in[19]
*12 io_in[1]
*13 io_in[20]
*14 io_in[21]
*15 io_in[22]
*16 io_in[23]
*17 io_in[24]
*18 io_in[25]
*19 io_in[26]
*20 io_in[27]
*21 io_in[28]
*22 io_in[29]
*23 io_in[2]
*24 io_in[30]
*25 io_in[31]
*26 io_in[32]
*27 io_in[33]
*28 io_in[34]
*29 io_in[35]
*30 io_in[36]
*31 io_in[37]
*32 io_in[3]
*33 io_in[4]
*34 io_in[5]
*35 io_in[6]
*36 io_in[7]
*37 io_in[8]
*38 io_in[9]
*39 net69
*40 net79
*41 net80
*42 net81
*43 net82
*44 net83
*45 net84
*46 net85
*47 net86
*48 net87
*49 net88
*50 net70
*51 net89
*52 net90
*53 net91
*54 net92
*55 net93
*56 net94
*57 net95
*58 net96
*59 net97
*60 net98
*61 net71
*62 net99
*63 net100
*64 net200
*65 net201
*66 net202
*67 net203
*68 net204
*69 net205
*70 net72
*71 net73
*72 net74
*73 net75
*74 net76
*75 net77
*76 net78
*77 net101
*78 net111
*79 net112
*80 net113
*81 net114
*82 net115
*83 net116
*84 net117
*85 net118
*86 net119
*87 net120
*88 net102
*89 net121
*90 net122
*91 net123
*92 net124
*93 net125
*94 net126
*95 net127
*96 net128
*97 net129
*98 net130
*99 net103
*100 net131
*101 net132
*102 io_out[32]
*103 io_out[33]
*104 io_out[34]
*105 io_out[35]
*106 io_out[36]
*107 io_out[37]
*108 net104
*109 net105
*110 net106
*111 net107
*112 net108
*113 net109
*114 net110
*115 net133
*116 net134
*117 net135
*118 la_data_in[0]
*119 la_data_in[10]
*120 la_data_in[11]
*121 la_data_in[12]
*122 la_data_in[13]
*123 la_data_in[14]
*124 la_data_in[15]
*125 la_data_in[16]
*126 la_data_in[17]
*127 la_data_in[18]
*128 la_data_in[19]
*129 la_data_in[1]
*130 la_data_in[20]
*131 la_data_in[21]
*132 la_data_in[22]
*133 la_data_in[23]
*134 la_data_in[24]
*135 la_data_in[25]
*136 la_data_in[26]
*137 la_data_in[27]
*138 la_data_in[28]
*139 la_data_in[29]
*140 la_data_in[2]
*141 la_data_in[30]
*142 la_data_in[31]
*143 la_data_in[32]
*144 la_data_in[33]
*145 la_data_in[34]
*146 la_data_in[35]
*147 la_data_in[36]
*148 la_data_in[37]
*149 la_data_in[38]
*150 la_data_in[39]
*151 la_data_in[3]
*152 la_data_in[40]
*153 la_data_in[41]
*154 la_data_in[42]
*155 la_data_in[43]
*156 la_data_in[44]
*157 la_data_in[45]
*158 la_data_in[46]
*159 la_data_in[47]
*160 la_data_in[48]
*161 la_data_in[49]
*162 la_data_in[4]
*163 la_data_in[50]
*164 la_data_in[51]
*165 la_data_in[52]
*166 la_data_in[53]
*167 la_data_in[54]
*168 la_data_in[55]
*169 la_data_in[56]
*170 la_data_in[57]
*171 la_data_in[58]
*172 la_data_in[59]
*173 la_data_in[5]
*174 la_data_in[60]
*175 la_data_in[61]
*176 la_data_in[62]
*177 la_data_in[63]
*178 la_data_in[6]
*179 la_data_in[7]
*180 la_data_in[8]
*181 la_data_in[9]
*182 net136
*183 net146
*184 net147
*185 net148
*186 net149
*187 net150
*188 net151
*189 net152
*190 net153
*191 net154
*192 net155
*193 net137
*194 net156
*195 net157
*196 net158
*197 net159
*198 net160
*199 net161
*200 net162
*201 net163
*202 net164
*203 net165
*204 net138
*205 net166
*206 la_data_out[31]
*207 la_data_out[32]
*208 la_data_out[33]
*209 la_data_out[34]
*210 la_data_out[35]
*211 la_data_out[36]
*212 la_data_out[37]
*213 la_data_out[38]
*214 la_data_out[39]
*215 net139
*216 la_data_out[40]
*217 la_data_out[41]
*218 la_data_out[42]
*219 la_data_out[43]
*220 la_data_out[44]
*221 la_data_out[45]
*222 la_data_out[46]
*223 la_data_out[47]
*224 la_data_out[48]
*225 la_data_out[49]
*226 net140
*227 la_data_out[50]
*228 la_data_out[51]
*229 la_data_out[52]
*230 la_data_out[53]
*231 la_data_out[54]
*232 la_data_out[55]
*233 la_data_out[56]
*234 la_data_out[57]
*235 la_data_out[58]
*236 la_data_out[59]
*237 net141
*238 la_data_out[60]
*239 la_data_out[61]
*240 la_data_out[62]
*241 la_data_out[63]
*242 net142
*243 net143
*244 net144
*245 net145
*246 la_oenb[0]
*247 la_oenb[10]
*248 la_oenb[11]
*249 la_oenb[12]
*250 la_oenb[13]
*251 la_oenb[14]
*252 la_oenb[15]
*253 la_oenb[16]
*254 la_oenb[17]
*255 la_oenb[18]
*256 la_oenb[19]
*257 la_oenb[1]
*258 la_oenb[20]
*259 la_oenb[21]
*260 la_oenb[22]
*261 la_oenb[23]
*262 la_oenb[24]
*263 la_oenb[25]
*264 la_oenb[26]
*265 la_oenb[27]
*266 la_oenb[28]
*267 la_oenb[29]
*268 la_oenb[2]
*269 la_oenb[30]
*270 la_oenb[31]
*271 la_oenb[32]
*272 la_oenb[33]
*273 la_oenb[34]
*274 la_oenb[35]
*275 la_oenb[36]
*276 la_oenb[37]
*277 la_oenb[38]
*278 la_oenb[39]
*279 la_oenb[3]
*280 la_oenb[40]
*281 la_oenb[41]
*282 la_oenb[42]
*283 la_oenb[43]
*284 la_oenb[44]
*285 la_oenb[45]
*286 la_oenb[46]
*287 la_oenb[47]
*288 la_oenb[48]
*289 la_oenb[49]
*290 la_oenb[4]
*291 la_oenb[50]
*292 la_oenb[51]
*293 la_oenb[52]
*294 la_oenb[53]
*295 la_oenb[54]
*296 la_oenb[55]
*297 la_oenb[56]
*298 la_oenb[57]
*299 la_oenb[58]
*300 la_oenb[59]
*301 la_oenb[5]
*302 la_oenb[60]
*303 la_oenb[61]
*304 la_oenb[62]
*305 la_oenb[63]
*306 la_oenb[6]
*307 la_oenb[7]
*308 la_oenb[8]
*309 la_oenb[9]
*312 wb_clk_i
*313 wb_rst_i
*314 net167
*315 wbs_adr_i[0]
*316 wbs_adr_i[10]
*317 wbs_adr_i[11]
*318 wbs_adr_i[12]
*319 wbs_adr_i[13]
*320 wbs_adr_i[14]
*321 wbs_adr_i[15]
*322 wbs_adr_i[16]
*323 wbs_adr_i[17]
*324 wbs_adr_i[18]
*325 wbs_adr_i[19]
*326 wbs_adr_i[1]
*327 wbs_adr_i[20]
*328 wbs_adr_i[21]
*329 wbs_adr_i[22]
*330 wbs_adr_i[23]
*331 wbs_adr_i[24]
*332 wbs_adr_i[25]
*333 wbs_adr_i[26]
*334 wbs_adr_i[27]
*335 wbs_adr_i[28]
*336 wbs_adr_i[29]
*337 wbs_adr_i[2]
*338 wbs_adr_i[30]
*339 wbs_adr_i[31]
*340 wbs_adr_i[3]
*341 wbs_adr_i[4]
*342 wbs_adr_i[5]
*343 wbs_adr_i[6]
*344 wbs_adr_i[7]
*345 wbs_adr_i[8]
*346 wbs_adr_i[9]
*347 wbs_cyc_i
*348 wbs_dat_i[0]
*349 wbs_dat_i[10]
*350 wbs_dat_i[11]
*351 wbs_dat_i[12]
*352 wbs_dat_i[13]
*353 wbs_dat_i[14]
*354 wbs_dat_i[15]
*355 wbs_dat_i[16]
*356 wbs_dat_i[17]
*357 wbs_dat_i[18]
*358 wbs_dat_i[19]
*359 wbs_dat_i[1]
*360 wbs_dat_i[20]
*361 wbs_dat_i[21]
*362 wbs_dat_i[22]
*363 wbs_dat_i[23]
*364 wbs_dat_i[24]
*365 wbs_dat_i[25]
*366 wbs_dat_i[26]
*367 wbs_dat_i[27]
*368 wbs_dat_i[28]
*369 wbs_dat_i[29]
*370 wbs_dat_i[2]
*371 wbs_dat_i[30]
*372 wbs_dat_i[31]
*373 wbs_dat_i[3]
*374 wbs_dat_i[4]
*375 wbs_dat_i[5]
*376 wbs_dat_i[6]
*377 wbs_dat_i[7]
*378 wbs_dat_i[8]
*379 wbs_dat_i[9]
*380 net168
*381 net178
*382 net179
*383 net180
*384 net181
*385 net182
*386 net183
*387 net184
*388 net185
*389 net186
*390 net187
*391 net169
*392 net188
*393 net189
*394 net190
*395 net191
*396 net192
*397 net193
*398 net194
*399 net195
*400 net196
*401 net197
*402 net170
*403 net198
*404 net199
*405 net171
*406 net172
*407 net173
*408 net174
*409 net175
*410 net176
*411 net177
*412 wbs_sel_i[0]
*413 wbs_sel_i[1]
*414 wbs_sel_i[2]
*415 wbs_sel_i[3]
*416 wbs_stb_i
*417 wbs_we_i
*418 _000_
*419 _001_
*420 _002_
*421 _003_
*422 _004_
*423 _005_
*424 _006_
*425 _007_
*426 _008_
*427 _009_
*428 _010_
*429 _011_
*430 _012_
*431 _013_
*432 _014_
*433 _015_
*434 _016_
*435 _017_
*436 _018_
*437 _019_
*438 _020_
*439 _021_
*440 _022_
*441 _023_
*442 _024_
*443 _025_
*444 _026_
*445 _027_
*446 _028_
*447 _029_
*448 _030_
*449 _031_
*450 _032_
*451 _033_
*452 _034_
*453 _035_
*454 _036_
*455 _037_
*456 _038_
*457 _039_
*458 _040_
*459 _041_
*460 _042_
*461 _043_
*462 _044_
*463 _045_
*464 _046_
*465 _047_
*466 _048_
*467 _049_
*468 _050_
*469 _051_
*470 _052_
*471 _053_
*472 _054_
*473 _055_
*474 _056_
*475 _057_
*476 _058_
*477 _059_
*478 _060_
*479 _061_
*480 _062_
*481 _063_
*482 _064_
*483 _065_
*484 _066_
*485 _067_
*486 _068_
*487 _069_
*488 _070_
*489 _071_
*490 _072_
*491 _073_
*492 _074_
*493 net1
*494 net10
*495 net11
*496 net12
*497 net13
*498 net14
*499 net15
*500 net16
*501 net17
*502 net18
*503 net19
*504 net2
*505 net20
*506 net21
*507 net22
*508 net23
*509 net24
*510 net25
*511 net26
*512 net27
*513 net28
*514 net29
*515 net3
*516 net30
*517 net31
*518 net32
*519 net33
*520 net34
*521 net35
*522 net36
*523 net37
*524 net38
*525 net39
*526 net4
*527 net40
*528 net41
*529 net42
*530 net43
*531 net44
*532 net45
*533 net46
*534 net47
*535 net48
*536 net49
*537 net5
*538 net50
*539 net51
*540 net52
*541 net53
*542 net54
*543 net55
*544 net56
*545 net57
*546 net58
*547 net59
*548 net6
*549 net60
*550 net61
*551 net62
*552 net63
*553 net64
*554 net65
*555 net66
*556 net67
*557 net68
*558 net7
*559 net8
*560 net9
*561 ANTENNA__075__A1
*562 ANTENNA__075__A2
*563 ANTENNA__076__I
*564 ANTENNA__077__I
*565 ANTENNA__078__A1
*566 ANTENNA__079__A2
*567 ANTENNA__080__A1
*568 ANTENNA__081__A1
*569 ANTENNA__081__A2
*570 ANTENNA__082__A2
*571 ANTENNA__082__B
*572 ANTENNA__086__A1
*573 ANTENNA__087__A2
*574 ANTENNA__090__I0
*575 ANTENNA__090__I1
*576 ANTENNA__090__S
*577 ANTENNA__092__I
*578 ANTENNA__093__A2
*579 ANTENNA__094__A1
*580 ANTENNA__094__A2
*581 ANTENNA__096__I
*582 ANTENNA__097__A1
*583 ANTENNA__098__A1
*584 ANTENNA__098__A2
*585 ANTENNA__099__A1
*586 ANTENNA__100__A2
*587 ANTENNA__100__B
*588 ANTENNA__101__A1
*589 ANTENNA__103__I
*590 ANTENNA__104__I
*591 ANTENNA__105__I
*592 ANTENNA__107__A1
*593 ANTENNA__108__I
*594 ANTENNA__109__A1
*595 ANTENNA__110__A1
*596 ANTENNA__111__I
*597 ANTENNA__112__I
*598 ANTENNA__113__A1
*599 ANTENNA__113__A2
*600 ANTENNA__114__A1
*601 ANTENNA__115__I
*602 ANTENNA__116__A1
*603 ANTENNA__117__A1
*604 ANTENNA__117__A2
*605 ANTENNA__118__I
*606 ANTENNA__124__A1
*607 ANTENNA__124__B2
*608 ANTENNA__125__A2
*609 ANTENNA__126__A1
*610 ANTENNA__126__A2
*611 ANTENNA__128__A1
*612 ANTENNA__128__A2
*613 ANTENNA__129__A1
*614 ANTENNA__129__A2
*615 ANTENNA__131__I
*616 ANTENNA__134__A2
*617 ANTENNA__135__I
*618 ANTENNA__136__A1
*619 ANTENNA__136__B
*620 ANTENNA__139__I
*621 ANTENNA__140__I
*622 ANTENNA__152__B
*623 ANTENNA__154__A2
*624 ANTENNA__293__I
*625 ANTENNA__294__I
*626 ANTENNA__295__I
*627 ANTENNA__296__I
*628 ANTENNA__297__I
*629 ANTENNA__298__I
*630 ANTENNA__299__I
*631 ANTENNA__300__I
*632 ANTENNA__301__I
*633 ANTENNA__302__I
*634 ANTENNA__303__I
*635 ANTENNA__304__I
*636 ANTENNA__305__I
*637 ANTENNA__306__I
*638 ANTENNA__307__I
*639 ANTENNA__308__I
*640 ANTENNA__309__I
*641 ANTENNA__310__I
*642 ANTENNA__311__I
*643 ANTENNA__312__I
*644 ANTENNA__313__I
*645 ANTENNA__314__I
*646 ANTENNA__315__I
*647 ANTENNA__316__I
*648 ANTENNA__317__I
*649 ANTENNA__319__I
*650 ANTENNA__320__I
*651 ANTENNA__321__I
*652 ANTENNA__322__I
*653 ANTENNA__323__I
*654 ANTENNA__324__I
*655 ANTENNA__325__I
*656 ANTENNA_fanout67_I
*657 ANTENNA_fanout68_I
*658 ANTENNA_input10_I
*659 ANTENNA_input11_I
*660 ANTENNA_input12_I
*661 ANTENNA_input13_I
*662 ANTENNA_input14_I
*663 ANTENNA_input15_I
*664 ANTENNA_input16_I
*665 ANTENNA_input17_I
*666 ANTENNA_input18_I
*667 ANTENNA_input19_I
*668 ANTENNA_input1_I
*669 ANTENNA_input20_I
*670 ANTENNA_input21_I
*671 ANTENNA_input22_I
*672 ANTENNA_input23_I
*673 ANTENNA_input24_I
*674 ANTENNA_input25_I
*675 ANTENNA_input26_I
*676 ANTENNA_input27_I
*677 ANTENNA_input2_I
*678 ANTENNA_input3_I
*679 ANTENNA_input4_I
*680 ANTENNA_input5_I
*681 ANTENNA_input6_I
*682 ANTENNA_input7_I
*683 ANTENNA_input8_I
*684 ANTENNA_input9_I
*685 ANTENNA_output28_I
*686 ANTENNA_output29_I
*687 ANTENNA_output30_I
*688 ANTENNA_output31_I
*689 ANTENNA_output32_I
*690 ANTENNA_output33_I
*691 ANTENNA_output34_I
*692 ANTENNA_output35_I
*693 ANTENNA_output36_I
*694 ANTENNA_output37_I
*695 ANTENNA_output38_I
*696 ANTENNA_output39_I
*697 ANTENNA_output40_I
*698 ANTENNA_output41_I
*699 ANTENNA_output42_I
*700 ANTENNA_output43_I
*701 ANTENNA_output44_I
*702 ANTENNA_output45_I
*703 ANTENNA_output46_I
*704 ANTENNA_output47_I
*705 ANTENNA_output48_I
*706 ANTENNA_output49_I
*707 ANTENNA_output50_I
*708 ANTENNA_output51_I
*709 ANTENNA_output52_I
*710 ANTENNA_output53_I
*711 ANTENNA_output54_I
*712 ANTENNA_output55_I
*713 ANTENNA_output56_I
*714 ANTENNA_output57_I
*715 ANTENNA_output58_I
*716 ANTENNA_output59_I
*717 ANTENNA_output60_I
*718 ANTENNA_output61_I
*719 ANTENNA_output62_I
*720 ANTENNA_output63_I
*721 ANTENNA_output64_I
*722 ANTENNA_output65_I
*723 ANTENNA_output66_I
*724 FILLER_0_1001
*725 FILLER_0_1009
*726 FILLER_0_1013
*727 FILLER_0_1017
*728 FILLER_0_102
*729 FILLER_0_1022
*730 FILLER_0_1026
*731 FILLER_0_1031
*732 FILLER_0_104
*733 FILLER_0_1049
*734 FILLER_0_1052
*735 FILLER_0_1055
*736 FILLER_0_107
*737 FILLER_0_1071
*738 FILLER_0_1075
*739 FILLER_0_1083
*740 FILLER_0_1087
*741 FILLER_0_1102
*742 FILLER_0_1118
*743 FILLER_0_112
*744 FILLER_0_1122
*745 FILLER_0_1137
*746 FILLER_0_1153
*747 FILLER_0_1157
*748 FILLER_0_1160
*749 FILLER_0_1176
*750 FILLER_0_1184
*751 FILLER_0_1186
*752 FILLER_0_1189
*753 FILLER_0_1192
*754 FILLER_0_120
*755 FILLER_0_1207
*756 FILLER_0_1223
*757 FILLER_0_1227
*758 FILLER_0_1242
*759 FILLER_0_1258
*760 FILLER_0_126
*761 FILLER_0_1262
*762 FILLER_0_1265
*763 FILLER_0_1281
*764 FILLER_0_1289
*765 FILLER_0_1291
*766 FILLER_0_1294
*767 FILLER_0_1297
*768 FILLER_0_1312
*769 FILLER_0_1328
*770 FILLER_0_1332
*771 FILLER_0_134
*772 FILLER_0_1347
*773 FILLER_0_1363
*774 FILLER_0_1367
*775 FILLER_0_1370
*776 FILLER_0_138
*777 FILLER_0_1386
*778 FILLER_0_1394
*779 FILLER_0_1396
*780 FILLER_0_1399
*781 FILLER_0_1402
*782 FILLER_0_1417
*783 FILLER_0_142
*784 FILLER_0_1433
*785 FILLER_0_1437
*786 FILLER_0_1452
*787 FILLER_0_1468
*788 FILLER_0_147
*789 FILLER_0_1472
*790 FILLER_0_1475
*791 FILLER_0_1491
*792 FILLER_0_1499
*793 FILLER_0_1501
*794 FILLER_0_1504
*795 FILLER_0_1507
*796 FILLER_0_1522
*797 FILLER_0_1538
*798 FILLER_0_1542
*799 FILLER_0_1547
*800 FILLER_0_155
*801 FILLER_0_1553
*802 FILLER_0_1569
*803 FILLER_0_1573
*804 FILLER_0_1577
*805 FILLER_0_159
*806 FILLER_0_161
*807 FILLER_0_166
*808 FILLER_0_174
*809 FILLER_0_177
*810 FILLER_0_182
*811 FILLER_0_190
*812 FILLER_0_196
*813 FILLER_0_2
*814 FILLER_0_204
*815 FILLER_0_208
*816 FILLER_0_212
*817 FILLER_0_217
*818 FILLER_0_221
*819 FILLER_0_226
*820 FILLER_0_234
*821 FILLER_0_236
*822 FILLER_0_241
*823 FILLER_0_247
*824 FILLER_0_251
*825 FILLER_0_256
*826 FILLER_0_264
*827 FILLER_0_266
*828 FILLER_0_271
*829 FILLER_0_279
*830 FILLER_0_282
*831 FILLER_0_287
*832 FILLER_0_295
*833 FILLER_0_301
*834 FILLER_0_309
*835 FILLER_0_313
*836 FILLER_0_317
*837 FILLER_0_322
*838 FILLER_0_326
*839 FILLER_0_331
*840 FILLER_0_339
*841 FILLER_0_34
*842 FILLER_0_341
*843 FILLER_0_346
*844 FILLER_0_352
*845 FILLER_0_356
*846 FILLER_0_361
*847 FILLER_0_369
*848 FILLER_0_37
*849 FILLER_0_371
*850 FILLER_0_376
*851 FILLER_0_384
*852 FILLER_0_387
*853 FILLER_0_392
*854 FILLER_0_400
*855 FILLER_0_406
*856 FILLER_0_414
*857 FILLER_0_418
*858 FILLER_0_422
*859 FILLER_0_427
*860 FILLER_0_431
*861 FILLER_0_436
*862 FILLER_0_444
*863 FILLER_0_446
*864 FILLER_0_45
*865 FILLER_0_451
*866 FILLER_0_457
*867 FILLER_0_461
*868 FILLER_0_466
*869 FILLER_0_474
*870 FILLER_0_476
*871 FILLER_0_481
*872 FILLER_0_489
*873 FILLER_0_49
*874 FILLER_0_492
*875 FILLER_0_497
*876 FILLER_0_505
*877 FILLER_0_51
*878 FILLER_0_511
*879 FILLER_0_519
*880 FILLER_0_523
*881 FILLER_0_527
*882 FILLER_0_532
*883 FILLER_0_536
*884 FILLER_0_541
*885 FILLER_0_549
*886 FILLER_0_551
*887 FILLER_0_556
*888 FILLER_0_56
*889 FILLER_0_562
*890 FILLER_0_566
*891 FILLER_0_571
*892 FILLER_0_575
*893 FILLER_0_581
*894 FILLER_0_589
*895 FILLER_0_593
*896 FILLER_0_597
*897 FILLER_0_602
*898 FILLER_0_606
*899 FILLER_0_611
*900 FILLER_0_619
*901 FILLER_0_621
*902 FILLER_0_626
*903 FILLER_0_632
*904 FILLER_0_636
*905 FILLER_0_64
*906 FILLER_0_641
*907 FILLER_0_649
*908 FILLER_0_651
*909 FILLER_0_656
*910 FILLER_0_664
*911 FILLER_0_667
*912 FILLER_0_672
*913 FILLER_0_68
*914 FILLER_0_680
*915 FILLER_0_686
*916 FILLER_0_694
*917 FILLER_0_698
*918 FILLER_0_702
*919 FILLER_0_707
*920 FILLER_0_711
*921 FILLER_0_716
*922 FILLER_0_72
*923 FILLER_0_724
*924 FILLER_0_726
*925 FILLER_0_731
*926 FILLER_0_737
*927 FILLER_0_741
*928 FILLER_0_746
*929 FILLER_0_754
*930 FILLER_0_756
*931 FILLER_0_761
*932 FILLER_0_769
*933 FILLER_0_772
*934 FILLER_0_777
*935 FILLER_0_785
*936 FILLER_0_791
*937 FILLER_0_799
*938 FILLER_0_80
*939 FILLER_0_803
*940 FILLER_0_807
*941 FILLER_0_812
*942 FILLER_0_816
*943 FILLER_0_821
*944 FILLER_0_829
*945 FILLER_0_831
*946 FILLER_0_836
*947 FILLER_0_842
*948 FILLER_0_846
*949 FILLER_0_851
*950 FILLER_0_859
*951 FILLER_0_86
*952 FILLER_0_861
*953 FILLER_0_866
*954 FILLER_0_874
*955 FILLER_0_877
*956 FILLER_0_882
*957 FILLER_0_890
*958 FILLER_0_896
*959 FILLER_0_904
*960 FILLER_0_908
*961 FILLER_0_912
*962 FILLER_0_917
*963 FILLER_0_921
*964 FILLER_0_926
*965 FILLER_0_934
*966 FILLER_0_936
*967 FILLER_0_941
*968 FILLER_0_947
*969 FILLER_0_951
*970 FILLER_0_956
*971 FILLER_0_964
*972 FILLER_0_966
*973 FILLER_0_971
*974 FILLER_0_979
*975 FILLER_0_982
*976 FILLER_0_987
*977 FILLER_0_995
*978 FILLER_100_101
*979 FILLER_100_1024
*980 FILLER_100_1028
*981 FILLER_100_1031
*982 FILLER_100_105
*983 FILLER_100_108
*984 FILLER_100_1095
*985 FILLER_100_1099
*986 FILLER_100_1102
*987 FILLER_100_1166
*988 FILLER_100_1170
*989 FILLER_100_1173
*990 FILLER_100_1237
*991 FILLER_100_1241
*992 FILLER_100_1244
*993 FILLER_100_1308
*994 FILLER_100_1312
*995 FILLER_100_1315
*996 FILLER_100_1379
*997 FILLER_100_1383
*998 FILLER_100_1386
*999 FILLER_100_1450
*1000 FILLER_100_1454
*1001 FILLER_100_1457
*1002 FILLER_100_1521
*1003 FILLER_100_1525
*1004 FILLER_100_1528
*1005 FILLER_100_1560
*1006 FILLER_100_1576
*1007 FILLER_100_1580
*1008 FILLER_100_172
*1009 FILLER_100_176
*1010 FILLER_100_179
*1011 FILLER_100_2
*1012 FILLER_100_243
*1013 FILLER_100_247
*1014 FILLER_100_250
*1015 FILLER_100_314
*1016 FILLER_100_318
*1017 FILLER_100_321
*1018 FILLER_100_34
*1019 FILLER_100_37
*1020 FILLER_100_385
*1021 FILLER_100_389
*1022 FILLER_100_392
*1023 FILLER_100_456
*1024 FILLER_100_460
*1025 FILLER_100_463
*1026 FILLER_100_527
*1027 FILLER_100_531
*1028 FILLER_100_534
*1029 FILLER_100_598
*1030 FILLER_100_602
*1031 FILLER_100_605
*1032 FILLER_100_669
*1033 FILLER_100_673
*1034 FILLER_100_676
*1035 FILLER_100_740
*1036 FILLER_100_744
*1037 FILLER_100_747
*1038 FILLER_100_811
*1039 FILLER_100_815
*1040 FILLER_100_818
*1041 FILLER_100_882
*1042 FILLER_100_886
*1043 FILLER_100_889
*1044 FILLER_100_953
*1045 FILLER_100_957
*1046 FILLER_100_960
*1047 FILLER_101_1060
*1048 FILLER_101_1064
*1049 FILLER_101_1067
*1050 FILLER_101_1131
*1051 FILLER_101_1135
*1052 FILLER_101_1138
*1053 FILLER_101_1202
*1054 FILLER_101_1206
*1055 FILLER_101_1209
*1056 FILLER_101_1273
*1057 FILLER_101_1277
*1058 FILLER_101_1280
*1059 FILLER_101_1344
*1060 FILLER_101_1348
*1061 FILLER_101_1351
*1062 FILLER_101_137
*1063 FILLER_101_141
*1064 FILLER_101_1415
*1065 FILLER_101_1419
*1066 FILLER_101_1422
*1067 FILLER_101_144
*1068 FILLER_101_1486
*1069 FILLER_101_1490
*1070 FILLER_101_1493
*1071 FILLER_101_1557
*1072 FILLER_101_1561
*1073 FILLER_101_1564
*1074 FILLER_101_1580
*1075 FILLER_101_2
*1076 FILLER_101_208
*1077 FILLER_101_212
*1078 FILLER_101_215
*1079 FILLER_101_279
*1080 FILLER_101_283
*1081 FILLER_101_286
*1082 FILLER_101_350
*1083 FILLER_101_354
*1084 FILLER_101_357
*1085 FILLER_101_421
*1086 FILLER_101_425
*1087 FILLER_101_428
*1088 FILLER_101_492
*1089 FILLER_101_496
*1090 FILLER_101_499
*1091 FILLER_101_563
*1092 FILLER_101_567
*1093 FILLER_101_570
*1094 FILLER_101_634
*1095 FILLER_101_638
*1096 FILLER_101_641
*1097 FILLER_101_66
*1098 FILLER_101_70
*1099 FILLER_101_705
*1100 FILLER_101_709
*1101 FILLER_101_712
*1102 FILLER_101_73
*1103 FILLER_101_776
*1104 FILLER_101_780
*1105 FILLER_101_783
*1106 FILLER_101_847
*1107 FILLER_101_851
*1108 FILLER_101_854
*1109 FILLER_101_918
*1110 FILLER_101_922
*1111 FILLER_101_925
*1112 FILLER_101_989
*1113 FILLER_101_993
*1114 FILLER_101_996
*1115 FILLER_102_101
*1116 FILLER_102_1024
*1117 FILLER_102_1028
*1118 FILLER_102_1031
*1119 FILLER_102_105
*1120 FILLER_102_108
*1121 FILLER_102_1095
*1122 FILLER_102_1099
*1123 FILLER_102_1102
*1124 FILLER_102_1166
*1125 FILLER_102_1170
*1126 FILLER_102_1173
*1127 FILLER_102_1237
*1128 FILLER_102_1241
*1129 FILLER_102_1244
*1130 FILLER_102_1308
*1131 FILLER_102_1312
*1132 FILLER_102_1315
*1133 FILLER_102_1379
*1134 FILLER_102_1383
*1135 FILLER_102_1386
*1136 FILLER_102_1450
*1137 FILLER_102_1454
*1138 FILLER_102_1457
*1139 FILLER_102_1521
*1140 FILLER_102_1525
*1141 FILLER_102_1528
*1142 FILLER_102_1560
*1143 FILLER_102_1576
*1144 FILLER_102_1580
*1145 FILLER_102_172
*1146 FILLER_102_176
*1147 FILLER_102_179
*1148 FILLER_102_2
*1149 FILLER_102_243
*1150 FILLER_102_247
*1151 FILLER_102_250
*1152 FILLER_102_314
*1153 FILLER_102_318
*1154 FILLER_102_321
*1155 FILLER_102_34
*1156 FILLER_102_37
*1157 FILLER_102_385
*1158 FILLER_102_389
*1159 FILLER_102_392
*1160 FILLER_102_456
*1161 FILLER_102_460
*1162 FILLER_102_463
*1163 FILLER_102_527
*1164 FILLER_102_531
*1165 FILLER_102_534
*1166 FILLER_102_598
*1167 FILLER_102_602
*1168 FILLER_102_605
*1169 FILLER_102_669
*1170 FILLER_102_673
*1171 FILLER_102_676
*1172 FILLER_102_740
*1173 FILLER_102_744
*1174 FILLER_102_747
*1175 FILLER_102_811
*1176 FILLER_102_815
*1177 FILLER_102_818
*1178 FILLER_102_882
*1179 FILLER_102_886
*1180 FILLER_102_889
*1181 FILLER_102_953
*1182 FILLER_102_957
*1183 FILLER_102_960
*1184 FILLER_103_1060
*1185 FILLER_103_1064
*1186 FILLER_103_1067
*1187 FILLER_103_1131
*1188 FILLER_103_1135
*1189 FILLER_103_1138
*1190 FILLER_103_1202
*1191 FILLER_103_1206
*1192 FILLER_103_1209
*1193 FILLER_103_1273
*1194 FILLER_103_1277
*1195 FILLER_103_1280
*1196 FILLER_103_1344
*1197 FILLER_103_1348
*1198 FILLER_103_1351
*1199 FILLER_103_137
*1200 FILLER_103_141
*1201 FILLER_103_1415
*1202 FILLER_103_1419
*1203 FILLER_103_1422
*1204 FILLER_103_144
*1205 FILLER_103_1486
*1206 FILLER_103_1490
*1207 FILLER_103_1493
*1208 FILLER_103_1557
*1209 FILLER_103_1561
*1210 FILLER_103_1564
*1211 FILLER_103_1580
*1212 FILLER_103_2
*1213 FILLER_103_208
*1214 FILLER_103_212
*1215 FILLER_103_215
*1216 FILLER_103_279
*1217 FILLER_103_283
*1218 FILLER_103_286
*1219 FILLER_103_350
*1220 FILLER_103_354
*1221 FILLER_103_357
*1222 FILLER_103_421
*1223 FILLER_103_425
*1224 FILLER_103_428
*1225 FILLER_103_492
*1226 FILLER_103_496
*1227 FILLER_103_499
*1228 FILLER_103_563
*1229 FILLER_103_567
*1230 FILLER_103_570
*1231 FILLER_103_634
*1232 FILLER_103_638
*1233 FILLER_103_641
*1234 FILLER_103_66
*1235 FILLER_103_70
*1236 FILLER_103_705
*1237 FILLER_103_709
*1238 FILLER_103_712
*1239 FILLER_103_73
*1240 FILLER_103_776
*1241 FILLER_103_780
*1242 FILLER_103_783
*1243 FILLER_103_847
*1244 FILLER_103_851
*1245 FILLER_103_854
*1246 FILLER_103_918
*1247 FILLER_103_922
*1248 FILLER_103_925
*1249 FILLER_103_989
*1250 FILLER_103_993
*1251 FILLER_103_996
*1252 FILLER_104_101
*1253 FILLER_104_1024
*1254 FILLER_104_1028
*1255 FILLER_104_1031
*1256 FILLER_104_105
*1257 FILLER_104_108
*1258 FILLER_104_1095
*1259 FILLER_104_1099
*1260 FILLER_104_1102
*1261 FILLER_104_1166
*1262 FILLER_104_1170
*1263 FILLER_104_1173
*1264 FILLER_104_1237
*1265 FILLER_104_1241
*1266 FILLER_104_1244
*1267 FILLER_104_1308
*1268 FILLER_104_1312
*1269 FILLER_104_1315
*1270 FILLER_104_1379
*1271 FILLER_104_1383
*1272 FILLER_104_1386
*1273 FILLER_104_1450
*1274 FILLER_104_1454
*1275 FILLER_104_1457
*1276 FILLER_104_1521
*1277 FILLER_104_1525
*1278 FILLER_104_1528
*1279 FILLER_104_1560
*1280 FILLER_104_1576
*1281 FILLER_104_1580
*1282 FILLER_104_172
*1283 FILLER_104_176
*1284 FILLER_104_179
*1285 FILLER_104_2
*1286 FILLER_104_243
*1287 FILLER_104_247
*1288 FILLER_104_250
*1289 FILLER_104_314
*1290 FILLER_104_318
*1291 FILLER_104_321
*1292 FILLER_104_34
*1293 FILLER_104_37
*1294 FILLER_104_385
*1295 FILLER_104_389
*1296 FILLER_104_392
*1297 FILLER_104_456
*1298 FILLER_104_460
*1299 FILLER_104_463
*1300 FILLER_104_527
*1301 FILLER_104_531
*1302 FILLER_104_534
*1303 FILLER_104_598
*1304 FILLER_104_602
*1305 FILLER_104_605
*1306 FILLER_104_669
*1307 FILLER_104_673
*1308 FILLER_104_676
*1309 FILLER_104_740
*1310 FILLER_104_744
*1311 FILLER_104_747
*1312 FILLER_104_811
*1313 FILLER_104_815
*1314 FILLER_104_818
*1315 FILLER_104_882
*1316 FILLER_104_886
*1317 FILLER_104_889
*1318 FILLER_104_953
*1319 FILLER_104_957
*1320 FILLER_104_960
*1321 FILLER_105_1060
*1322 FILLER_105_1064
*1323 FILLER_105_1067
*1324 FILLER_105_1131
*1325 FILLER_105_1135
*1326 FILLER_105_1138
*1327 FILLER_105_1202
*1328 FILLER_105_1206
*1329 FILLER_105_1209
*1330 FILLER_105_1273
*1331 FILLER_105_1277
*1332 FILLER_105_1280
*1333 FILLER_105_1344
*1334 FILLER_105_1348
*1335 FILLER_105_1351
*1336 FILLER_105_137
*1337 FILLER_105_141
*1338 FILLER_105_1415
*1339 FILLER_105_1419
*1340 FILLER_105_1422
*1341 FILLER_105_144
*1342 FILLER_105_1486
*1343 FILLER_105_1490
*1344 FILLER_105_1493
*1345 FILLER_105_1557
*1346 FILLER_105_1561
*1347 FILLER_105_1564
*1348 FILLER_105_1580
*1349 FILLER_105_2
*1350 FILLER_105_208
*1351 FILLER_105_212
*1352 FILLER_105_215
*1353 FILLER_105_279
*1354 FILLER_105_283
*1355 FILLER_105_286
*1356 FILLER_105_350
*1357 FILLER_105_354
*1358 FILLER_105_357
*1359 FILLER_105_421
*1360 FILLER_105_425
*1361 FILLER_105_428
*1362 FILLER_105_492
*1363 FILLER_105_496
*1364 FILLER_105_499
*1365 FILLER_105_563
*1366 FILLER_105_567
*1367 FILLER_105_570
*1368 FILLER_105_634
*1369 FILLER_105_638
*1370 FILLER_105_641
*1371 FILLER_105_66
*1372 FILLER_105_70
*1373 FILLER_105_705
*1374 FILLER_105_709
*1375 FILLER_105_712
*1376 FILLER_105_73
*1377 FILLER_105_776
*1378 FILLER_105_780
*1379 FILLER_105_783
*1380 FILLER_105_847
*1381 FILLER_105_851
*1382 FILLER_105_854
*1383 FILLER_105_918
*1384 FILLER_105_922
*1385 FILLER_105_925
*1386 FILLER_105_989
*1387 FILLER_105_993
*1388 FILLER_105_996
*1389 FILLER_106_101
*1390 FILLER_106_1024
*1391 FILLER_106_1028
*1392 FILLER_106_1031
*1393 FILLER_106_105
*1394 FILLER_106_108
*1395 FILLER_106_1095
*1396 FILLER_106_1099
*1397 FILLER_106_1102
*1398 FILLER_106_1166
*1399 FILLER_106_1170
*1400 FILLER_106_1173
*1401 FILLER_106_1237
*1402 FILLER_106_1241
*1403 FILLER_106_1244
*1404 FILLER_106_1308
*1405 FILLER_106_1312
*1406 FILLER_106_1315
*1407 FILLER_106_1379
*1408 FILLER_106_1383
*1409 FILLER_106_1386
*1410 FILLER_106_1450
*1411 FILLER_106_1454
*1412 FILLER_106_1457
*1413 FILLER_106_1521
*1414 FILLER_106_1525
*1415 FILLER_106_1528
*1416 FILLER_106_1560
*1417 FILLER_106_1576
*1418 FILLER_106_1580
*1419 FILLER_106_172
*1420 FILLER_106_176
*1421 FILLER_106_179
*1422 FILLER_106_2
*1423 FILLER_106_243
*1424 FILLER_106_247
*1425 FILLER_106_250
*1426 FILLER_106_314
*1427 FILLER_106_318
*1428 FILLER_106_321
*1429 FILLER_106_34
*1430 FILLER_106_37
*1431 FILLER_106_385
*1432 FILLER_106_389
*1433 FILLER_106_392
*1434 FILLER_106_456
*1435 FILLER_106_460
*1436 FILLER_106_463
*1437 FILLER_106_527
*1438 FILLER_106_531
*1439 FILLER_106_534
*1440 FILLER_106_598
*1441 FILLER_106_602
*1442 FILLER_106_605
*1443 FILLER_106_669
*1444 FILLER_106_673
*1445 FILLER_106_676
*1446 FILLER_106_740
*1447 FILLER_106_744
*1448 FILLER_106_747
*1449 FILLER_106_811
*1450 FILLER_106_815
*1451 FILLER_106_818
*1452 FILLER_106_882
*1453 FILLER_106_886
*1454 FILLER_106_889
*1455 FILLER_106_953
*1456 FILLER_106_957
*1457 FILLER_106_960
*1458 FILLER_107_1060
*1459 FILLER_107_1064
*1460 FILLER_107_1067
*1461 FILLER_107_1131
*1462 FILLER_107_1135
*1463 FILLER_107_1138
*1464 FILLER_107_1202
*1465 FILLER_107_1206
*1466 FILLER_107_1209
*1467 FILLER_107_1273
*1468 FILLER_107_1277
*1469 FILLER_107_1280
*1470 FILLER_107_1344
*1471 FILLER_107_1348
*1472 FILLER_107_1351
*1473 FILLER_107_137
*1474 FILLER_107_141
*1475 FILLER_107_1415
*1476 FILLER_107_1419
*1477 FILLER_107_1422
*1478 FILLER_107_144
*1479 FILLER_107_1486
*1480 FILLER_107_1490
*1481 FILLER_107_1493
*1482 FILLER_107_1557
*1483 FILLER_107_1561
*1484 FILLER_107_1564
*1485 FILLER_107_1580
*1486 FILLER_107_2
*1487 FILLER_107_208
*1488 FILLER_107_212
*1489 FILLER_107_215
*1490 FILLER_107_279
*1491 FILLER_107_283
*1492 FILLER_107_286
*1493 FILLER_107_350
*1494 FILLER_107_354
*1495 FILLER_107_357
*1496 FILLER_107_421
*1497 FILLER_107_425
*1498 FILLER_107_428
*1499 FILLER_107_492
*1500 FILLER_107_496
*1501 FILLER_107_499
*1502 FILLER_107_563
*1503 FILLER_107_567
*1504 FILLER_107_570
*1505 FILLER_107_634
*1506 FILLER_107_638
*1507 FILLER_107_641
*1508 FILLER_107_66
*1509 FILLER_107_70
*1510 FILLER_107_705
*1511 FILLER_107_709
*1512 FILLER_107_712
*1513 FILLER_107_73
*1514 FILLER_107_776
*1515 FILLER_107_780
*1516 FILLER_107_783
*1517 FILLER_107_847
*1518 FILLER_107_851
*1519 FILLER_107_854
*1520 FILLER_107_918
*1521 FILLER_107_922
*1522 FILLER_107_925
*1523 FILLER_107_989
*1524 FILLER_107_993
*1525 FILLER_107_996
*1526 FILLER_108_101
*1527 FILLER_108_1024
*1528 FILLER_108_1028
*1529 FILLER_108_1031
*1530 FILLER_108_105
*1531 FILLER_108_108
*1532 FILLER_108_1095
*1533 FILLER_108_1099
*1534 FILLER_108_1102
*1535 FILLER_108_1166
*1536 FILLER_108_1170
*1537 FILLER_108_1173
*1538 FILLER_108_1237
*1539 FILLER_108_1241
*1540 FILLER_108_1244
*1541 FILLER_108_1308
*1542 FILLER_108_1312
*1543 FILLER_108_1315
*1544 FILLER_108_1379
*1545 FILLER_108_1383
*1546 FILLER_108_1386
*1547 FILLER_108_1450
*1548 FILLER_108_1454
*1549 FILLER_108_1457
*1550 FILLER_108_1521
*1551 FILLER_108_1525
*1552 FILLER_108_1528
*1553 FILLER_108_1560
*1554 FILLER_108_1576
*1555 FILLER_108_1580
*1556 FILLER_108_172
*1557 FILLER_108_176
*1558 FILLER_108_179
*1559 FILLER_108_2
*1560 FILLER_108_243
*1561 FILLER_108_247
*1562 FILLER_108_250
*1563 FILLER_108_314
*1564 FILLER_108_318
*1565 FILLER_108_321
*1566 FILLER_108_34
*1567 FILLER_108_37
*1568 FILLER_108_385
*1569 FILLER_108_389
*1570 FILLER_108_392
*1571 FILLER_108_456
*1572 FILLER_108_460
*1573 FILLER_108_463
*1574 FILLER_108_527
*1575 FILLER_108_531
*1576 FILLER_108_534
*1577 FILLER_108_598
*1578 FILLER_108_602
*1579 FILLER_108_605
*1580 FILLER_108_669
*1581 FILLER_108_673
*1582 FILLER_108_676
*1583 FILLER_108_740
*1584 FILLER_108_744
*1585 FILLER_108_747
*1586 FILLER_108_811
*1587 FILLER_108_815
*1588 FILLER_108_818
*1589 FILLER_108_882
*1590 FILLER_108_886
*1591 FILLER_108_889
*1592 FILLER_108_953
*1593 FILLER_108_957
*1594 FILLER_108_960
*1595 FILLER_109_1060
*1596 FILLER_109_1064
*1597 FILLER_109_1067
*1598 FILLER_109_1131
*1599 FILLER_109_1135
*1600 FILLER_109_1138
*1601 FILLER_109_1202
*1602 FILLER_109_1206
*1603 FILLER_109_1209