*SPEF "ieee 1481-1999"
*DESIGN "user_project_wrapper"
*DATE "11:11:11 Fri 11 11, 1111"
*VENDOR "OpenRCX"
*PROGRAM "Parallel Extraction"
*VERSION "1.0"
*DESIGN_FLOW "NAME_SCOPE LOCAL" "PIN_CAP NONE"
*DIVIDER /
*DELIMITER :
*BUS_DELIMITER []
*T_UNIT 1 NS
*C_UNIT 1 PF
*R_UNIT 1 OHM
*L_UNIT 1 HENRY

*NAME_MAP
*1 io_in[0]
*2 io_in[10]
*3 io_in[11]
*4 io_in[12]
*5 io_in[13]
*6 io_in[14]
*7 io_in[15]
*8 io_in[16]
*9 io_in[17]
*10 io_in[18]
*11 io_in[19]
*12 io_in[1]
*13 io_in[20]
*14 io_in[21]
*15 io_in[22]
*16 io_in[23]
*17 io_in[24]
*18 io_in[25]
*19 io_in[26]
*20 io_in[27]
*21 io_in[28]
*22 io_in[29]
*23 io_in[2]
*24 io_in[30]
*25 io_in[31]
*26 io_in[32]
*27 io_in[33]
*28 io_in[34]
*29 io_in[35]
*30 io_in[36]
*31 io_in[37]
*32 io_in[3]
*33 io_in[4]
*34 io_in[5]
*35 io_in[6]
*36 io_in[7]
*37 io_in[8]
*38 io_in[9]
*39 io_oeb[0]
*40 io_oeb[10]
*41 io_oeb[11]
*42 io_oeb[12]
*43 io_oeb[13]
*44 io_oeb[14]
*45 io_oeb[15]
*46 io_oeb[16]
*47 io_oeb[17]
*48 io_oeb[18]
*49 io_oeb[19]
*50 io_oeb[1]
*51 io_oeb[20]
*52 io_oeb[21]
*53 io_oeb[22]
*54 io_oeb[23]
*55 io_oeb[24]
*56 io_oeb[25]
*57 io_oeb[26]
*58 io_oeb[27]
*59 io_oeb[28]
*60 io_oeb[29]
*61 io_oeb[2]
*62 io_oeb[30]
*63 io_oeb[31]
*64 io_oeb[32]
*65 io_oeb[33]
*66 io_oeb[34]
*67 io_oeb[35]
*68 io_oeb[36]
*69 io_oeb[37]
*70 io_oeb[3]
*71 io_oeb[4]
*72 io_oeb[5]
*73 io_oeb[6]
*74 io_oeb[7]
*75 io_oeb[8]
*76 io_oeb[9]
*77 io_out[0]
*78 io_out[10]
*79 io_out[11]
*80 io_out[12]
*81 io_out[13]
*82 io_out[14]
*83 io_out[15]
*84 io_out[16]
*85 io_out[17]
*86 io_out[18]
*87 io_out[19]
*88 io_out[1]
*89 io_out[20]
*90 io_out[21]
*91 io_out[22]
*92 io_out[23]
*93 io_out[24]
*94 io_out[25]
*95 io_out[26]
*96 io_out[27]
*97 io_out[28]
*98 io_out[29]
*99 io_out[2]
*100 io_out[30]
*101 io_out[31]
*102 io_out[32]
*103 io_out[33]
*104 io_out[34]
*105 io_out[35]
*106 io_out[36]
*107 io_out[37]
*108 io_out[3]
*109 io_out[4]
*110 io_out[5]
*111 io_out[6]
*112 io_out[7]
*113 io_out[8]
*114 io_out[9]
*115 la_data_in[0]
*116 la_data_in[10]
*117 la_data_in[11]
*118 la_data_in[12]
*119 la_data_in[13]
*120 la_data_in[14]
*121 la_data_in[15]
*122 la_data_in[16]
*123 la_data_in[17]
*124 la_data_in[18]
*125 la_data_in[19]
*126 la_data_in[1]
*127 la_data_in[20]
*128 la_data_in[21]
*129 la_data_in[22]
*130 la_data_in[23]
*131 la_data_in[24]
*132 la_data_in[25]
*133 la_data_in[26]
*134 la_data_in[27]
*135 la_data_in[28]
*136 la_data_in[29]
*137 la_data_in[2]
*138 la_data_in[30]
*139 la_data_in[31]
*140 la_data_in[32]
*141 la_data_in[33]
*142 la_data_in[34]
*143 la_data_in[35]
*144 la_data_in[36]
*145 la_data_in[37]
*146 la_data_in[38]
*147 la_data_in[39]
*148 la_data_in[3]
*149 la_data_in[40]
*150 la_data_in[41]
*151 la_data_in[42]
*152 la_data_in[43]
*153 la_data_in[44]
*154 la_data_in[45]
*155 la_data_in[46]
*156 la_data_in[47]
*157 la_data_in[48]
*158 la_data_in[49]
*159 la_data_in[4]
*160 la_data_in[50]
*161 la_data_in[51]
*162 la_data_in[52]
*163 la_data_in[53]
*164 la_data_in[54]
*165 la_data_in[55]
*166 la_data_in[56]
*167 la_data_in[57]
*168 la_data_in[58]
*169 la_data_in[59]
*170 la_data_in[5]
*171 la_data_in[60]
*172 la_data_in[61]
*173 la_data_in[62]
*174 la_data_in[63]
*175 la_data_in[6]
*176 la_data_in[7]
*177 la_data_in[8]
*178 la_data_in[9]
*179 la_data_out[0]
*180 la_data_out[10]
*181 la_data_out[11]
*182 la_data_out[12]
*183 la_data_out[13]
*184 la_data_out[14]
*185 la_data_out[15]
*186 la_data_out[16]
*187 la_data_out[17]
*188 la_data_out[18]
*189 la_data_out[19]
*190 la_data_out[1]
*191 la_data_out[20]
*192 la_data_out[21]
*193 la_data_out[22]
*194 la_data_out[23]
*195 la_data_out[24]
*196 la_data_out[25]
*197 la_data_out[26]
*198 la_data_out[27]
*199 la_data_out[28]
*200 la_data_out[29]
*201 la_data_out[2]
*202 la_data_out[30]
*203 la_data_out[31]
*204 la_data_out[32]
*205 la_data_out[33]
*206 la_data_out[34]
*207 la_data_out[35]
*208 la_data_out[36]
*209 la_data_out[37]
*210 la_data_out[38]
*211 la_data_out[39]
*212 la_data_out[3]
*213 la_data_out[40]
*214 la_data_out[41]
*215 la_data_out[42]
*216 la_data_out[43]
*217 la_data_out[44]
*218 la_data_out[45]
*219 la_data_out[46]
*220 la_data_out[47]
*221 la_data_out[48]
*222 la_data_out[49]
*223 la_data_out[4]
*224 la_data_out[50]
*225 la_data_out[51]
*226 la_data_out[52]
*227 la_data_out[53]
*228 la_data_out[54]
*229 la_data_out[55]
*230 la_data_out[56]
*231 la_data_out[57]
*232 la_data_out[58]
*233 la_data_out[59]
*234 la_data_out[5]
*235 la_data_out[60]
*236 la_data_out[61]
*237 la_data_out[62]
*238 la_data_out[63]
*239 la_data_out[6]
*240 la_data_out[7]
*241 la_data_out[8]
*242 la_data_out[9]
*243 la_oenb[0]
*244 la_oenb[10]
*245 la_oenb[11]
*246 la_oenb[12]
*247 la_oenb[13]
*248 la_oenb[14]
*249 la_oenb[15]
*250 la_oenb[16]
*251 la_oenb[17]
*252 la_oenb[18]
*253 la_oenb[19]
*254 la_oenb[1]
*255 la_oenb[20]
*256 la_oenb[21]
*257 la_oenb[22]
*258 la_oenb[23]
*259 la_oenb[24]
*260 la_oenb[25]
*261 la_oenb[26]
*262 la_oenb[27]
*263 la_oenb[28]
*264 la_oenb[29]
*265 la_oenb[2]
*266 la_oenb[30]
*267 la_oenb[31]
*268 la_oenb[32]
*269 la_oenb[33]
*270 la_oenb[34]
*271 la_oenb[35]
*272 la_oenb[36]
*273 la_oenb[37]
*274 la_oenb[38]
*275 la_oenb[39]
*276 la_oenb[3]
*277 la_oenb[40]
*278 la_oenb[41]
*279 la_oenb[42]
*280 la_oenb[43]
*281 la_oenb[44]
*282 la_oenb[45]
*283 la_oenb[46]
*284 la_oenb[47]
*285 la_oenb[48]
*286 la_oenb[49]
*287 la_oenb[4]
*288 la_oenb[50]
*289 la_oenb[51]
*290 la_oenb[52]
*291 la_oenb[53]
*292 la_oenb[54]
*293 la_oenb[55]
*294 la_oenb[56]
*295 la_oenb[57]
*296 la_oenb[58]
*297 la_oenb[59]
*298 la_oenb[5]
*299 la_oenb[60]
*300 la_oenb[61]
*301 la_oenb[62]
*302 la_oenb[63]
*303 la_oenb[6]
*304 la_oenb[7]
*305 la_oenb[8]
*306 la_oenb[9]
*307 user_clock2
*308 user_irq[0]
*309 user_irq[1]
*310 user_irq[2]
*313 wb_clk_i
*314 wb_rst_i
*315 wbs_ack_o
*316 wbs_adr_i[0]
*317 wbs_adr_i[10]
*318 wbs_adr_i[11]
*319 wbs_adr_i[12]
*320 wbs_adr_i[13]
*321 wbs_adr_i[14]
*322 wbs_adr_i[15]
*323 wbs_adr_i[16]
*324 wbs_adr_i[17]
*325 wbs_adr_i[18]
*326 wbs_adr_i[19]
*327 wbs_adr_i[1]
*328 wbs_adr_i[20]
*329 wbs_adr_i[21]
*330 wbs_adr_i[22]
*331 wbs_adr_i[23]
*332 wbs_adr_i[24]
*333 wbs_adr_i[25]
*334 wbs_adr_i[26]
*335 wbs_adr_i[27]
*336 wbs_adr_i[28]
*337 wbs_adr_i[29]
*338 wbs_adr_i[2]
*339 wbs_adr_i[30]
*340 wbs_adr_i[31]
*341 wbs_adr_i[3]
*342 wbs_adr_i[4]
*343 wbs_adr_i[5]
*344 wbs_adr_i[6]
*345 wbs_adr_i[7]
*346 wbs_adr_i[8]
*347 wbs_adr_i[9]
*348 wbs_cyc_i
*349 wbs_dat_i[0]
*350 wbs_dat_i[10]
*351 wbs_dat_i[11]
*352 wbs_dat_i[12]
*353 wbs_dat_i[13]
*354 wbs_dat_i[14]
*355 wbs_dat_i[15]
*356 wbs_dat_i[16]
*357 wbs_dat_i[17]
*358 wbs_dat_i[18]
*359 wbs_dat_i[19]
*360 wbs_dat_i[1]
*361 wbs_dat_i[20]
*362 wbs_dat_i[21]
*363 wbs_dat_i[22]
*364 wbs_dat_i[23]
*365 wbs_dat_i[24]
*366 wbs_dat_i[25]
*367 wbs_dat_i[26]
*368 wbs_dat_i[27]
*369 wbs_dat_i[28]
*370 wbs_dat_i[29]
*371 wbs_dat_i[2]
*372 wbs_dat_i[30]
*373 wbs_dat_i[31]
*374 wbs_dat_i[3]
*375 wbs_dat_i[4]
*376 wbs_dat_i[5]
*377 wbs_dat_i[6]
*378 wbs_dat_i[7]
*379 wbs_dat_i[8]
*380 wbs_dat_i[9]
*381 wbs_dat_o[0]
*382 wbs_dat_o[10]
*383 wbs_dat_o[11]
*384 wbs_dat_o[12]
*385 wbs_dat_o[13]
*386 wbs_dat_o[14]
*387 wbs_dat_o[15]
*388 wbs_dat_o[16]
*389 wbs_dat_o[17]
*390 wbs_dat_o[18]
*391 wbs_dat_o[19]
*392 wbs_dat_o[1]
*393 wbs_dat_o[20]
*394 wbs_dat_o[21]
*395 wbs_dat_o[22]
*396 wbs_dat_o[23]
*397 wbs_dat_o[24]
*398 wbs_dat_o[25]
*399 wbs_dat_o[26]
*400 wbs_dat_o[27]
*401 wbs_dat_o[28]
*402 wbs_dat_o[29]
*403 wbs_dat_o[2]
*404 wbs_dat_o[30]
*405 wbs_dat_o[31]
*406 wbs_dat_o[3]
*407 wbs_dat_o[4]
*408 wbs_dat_o[5]
*409 wbs_dat_o[6]
*410 wbs_dat_o[7]
*411 wbs_dat_o[8]
*412 wbs_dat_o[9]
*413 wbs_sel_i[0]
*414 wbs_sel_i[1]
*415 wbs_sel_i[2]
*416 wbs_sel_i[3]
*417 wbs_stb_i
*418 wbs_we_i
*419 mprj

*PORTS
io_in[0] I
io_in[10] I
io_in[11] I
io_in[12] I
io_in[13] I
io_in[14] I
io_in[15] I
io_in[16] I
io_in[17] I
io_in[18] I
io_in[19] I
io_in[1] I
io_in[20] I
io_in[21] I
io_in[22] I
io_in[23] I
io_in[24] I
io_in[25] I
io_in[26] I
io_in[27] I
io_in[28] I
io_in[29] I
io_in[2] I
io_in[30] I
io_in[31] I
io_in[32] I
io_in[33] I
io_in[34] I
io_in[35] I
io_in[36] I
io_in[37] I
io_in[3] I
io_in[4] I
io_in[5] I
io_in[6] I
io_in[7] I
io_in[8] I
io_in[9] I
io_oeb[0] O
io_oeb[10] O
io_oeb[11] O
io_oeb[12] O
io_oeb[13] O
io_oeb[14] O
io_oeb[15] O
io_oeb[16] O
io_oeb[17] O
io_oeb[18] O
io_oeb[19] O
io_oeb[1] O
io_oeb[20] O
io_oeb[21] O
io_oeb[22] O
io_oeb[23] O
io_oeb[24] O
io_oeb[25] O
io_oeb[26] O
io_oeb[27] O
io_oeb[28] O
io_oeb[29] O
io_oeb[2] O
io_oeb[30] O
io_oeb[31] O
io_oeb[32] O
io_oeb[33] O
io_oeb[34] O
io_oeb[35] O
io_oeb[36] O
io_oeb[37] O
io_oeb[3] O
io_oeb[4] O
io_oeb[5] O
io_oeb[6] O
io_oeb[7] O
io_oeb[8] O
io_oeb[9] O
io_out[0] O
io_out[10] O
io_out[11] O
io_out[12] O
io_out[13] O
io_out[14] O
io_out[15] O
io_out[16] O
io_out[17] O
io_out[18] O
io_out[19] O
io_out[1] O
io_out[20] O
io_out[21] O
io_out[22] O
io_out[23] O
io_out[24] O
io_out[25] O
io_out[26] O
io_out[27] O
io_out[28] O
io_out[29] O
io_out[2] O
io_out[30] O
io_out[31] O
io_out[32] O
io_out[33] O
io_out[34] O
io_out[35] O
io_out[36] O
io_out[37] O
io_out[3] O
io_out[4] O
io_out[5] O
io_out[6] O
io_out[7] O
io_out[8] O
io_out[9] O
la_data_in[0] I
la_data_in[10] I
la_data_in[11] I
la_data_in[12] I
la_data_in[13] I
la_data_in[14] I
la_data_in[15] I
la_data_in[16] I
la_data_in[17] I
la_data_in[18] I
la_data_in[19] I
la_data_in[1] I
la_data_in[20] I
la_data_in[21] I
la_data_in[22] I
la_data_in[23] I
la_data_in[24] I
la_data_in[25] I
la_data_in[26] I
la_data_in[27] I
la_data_in[28] I
la_data_in[29] I
la_data_in[2] I
la_data_in[30] I
la_data_in[31] I
la_data_in[32] I
la_data_in[33] I
la_data_in[34] I
la_data_in[35] I
la_data_in[36] I
la_data_in[37] I
la_data_in[38] I
la_data_in[39] I
la_data_in[3] I
la_data_in[40] I
la_data_in[41] I
la_data_in[42] I
la_data_in[43] I
la_data_in[44] I
la_data_in[45] I
la_data_in[46] I
la_data_in[47] I
la_data_in[48] I
la_data_in[49] I
la_data_in[4] I
la_data_in[50] I
la_data_in[51] I
la_data_in[52] I
la_data_in[53] I
la_data_in[54] I
la_data_in[55] I
la_data_in[56] I
la_data_in[57] I
la_data_in[58] I
la_data_in[59] I
la_data_in[5] I
la_data_in[60] I
la_data_in[61] I
la_data_in[62] I
la_data_in[63] I
la_data_in[6] I
la_data_in[7] I
la_data_in[8] I
la_data_in[9] I
la_data_out[0] O
la_data_out[10] O
la_data_out[11] O
la_data_out[12] O
la_data_out[13] O
la_data_out[14] O
la_data_out[15] O
la_data_out[16] O
la_data_out[17] O
la_data_out[18] O
la_data_out[19] O
la_data_out[1] O
la_data_out[20] O
la_data_out[21] O
la_data_out[22] O
la_data_out[23] O
la_data_out[24] O
la_data_out[25] O
la_data_out[26] O
la_data_out[27] O
la_data_out[28] O
la_data_out[29] O
la_data_out[2] O
la_data_out[30] O
la_data_out[31] O
la_data_out[32] O
la_data_out[33] O
la_data_out[34] O
la_data_out[35] O
la_data_out[36] O
la_data_out[37] O
la_data_out[38] O
la_data_out[39] O
la_data_out[3] O
la_data_out[40] O
la_data_out[41] O
la_data_out[42] O
la_data_out[43] O
la_data_out[44] O
la_data_out[45] O
la_data_out[46] O
la_data_out[47] O
la_data_out[48] O
la_data_out[49] O
la_data_out[4] O
la_data_out[50] O
la_data_out[51] O
la_data_out[52] O
la_data_out[53] O
la_data_out[54] O
la_data_out[55] O
la_data_out[56] O
la_data_out[57] O
la_data_out[58] O
la_data_out[59] O
la_data_out[5] O
la_data_out[60] O
la_data_out[61] O
la_data_out[62] O
la_data_out[63] O
la_data_out[6] O
la_data_out[7] O
la_data_out[8] O
la_data_out[9] O
la_oenb[0] I
la_oenb[10] I
la_oenb[11] I
la_oenb[12] I
la_oenb[13] I
la_oenb[14] I
la_oenb[15] I
la_oenb[16] I
la_oenb[17] I
la_oenb[18] I
la_oenb[19] I
la_oenb[1] I
la_oenb[20] I
la_oenb[21] I
la_oenb[22] I
la_oenb[23] I
la_oenb[24] I
la_oenb[25] I
la_oenb[26] I
la_oenb[27] I
la_oenb[28] I
la_oenb[29] I
la_oenb[2] I
la_oenb[30] I
la_oenb[31] I
la_oenb[32] I
la_oenb[33] I
la_oenb[34] I
la_oenb[35] I
la_oenb[36] I
la_oenb[37] I
la_oenb[38] I
la_oenb[39] I
la_oenb[3] I
la_oenb[40] I
la_oenb[41] I
la_oenb[42] I
la_oenb[43] I
la_oenb[44] I
la_oenb[45] I
la_oenb[46] I
la_oenb[47] I
la_oenb[48] I
la_oenb[49] I
la_oenb[4] I
la_oenb[50] I
la_oenb[51] I
la_oenb[52] I
la_oenb[53] I
la_oenb[54] I
la_oenb[55] I
la_oenb[56] I
la_oenb[57] I
la_oenb[58] I
la_oenb[59] I
la_oenb[5] I
la_oenb[60] I
la_oenb[61] I
la_oenb[62] I
la_oenb[63] I
la_oenb[6] I
la_oenb[7] I
la_oenb[8] I
la_oenb[9] I
user_clock2 I
user_irq[0] O
user_irq[1] O
user_irq[2] O
wb_clk_i I
wb_rst_i I
wbs_ack_o O
wbs_adr_i[0] I
wbs_adr_i[10] I
wbs_adr_i[11] I
wbs_adr_i[12] I
wbs_adr_i[13] I
wbs_adr_i[14] I
wbs_adr_i[15] I
wbs_adr_i[16] I
wbs_adr_i[17] I
wbs_adr_i[18] I
wbs_adr_i[19] I
wbs_adr_i[1] I
wbs_adr_i[20] I
wbs_adr_i[21] I
wbs_adr_i[22] I
wbs_adr_i[23] I
wbs_adr_i[24] I
wbs_adr_i[25] I
wbs_adr_i[26] I
wbs_adr_i[27] I
wbs_adr_i[28] I
wbs_adr_i[29] I
wbs_adr_i[2] I
wbs_adr_i[30] I
wbs_adr_i[31] I
wbs_adr_i[3] I
wbs_adr_i[4] I
wbs_adr_i[5] I
wbs_adr_i[6] I
wbs_adr_i[7] I
wbs_adr_i[8] I
wbs_adr_i[9] I
wbs_cyc_i I
wbs_dat_i[0] I
wbs_dat_i[10] I
wbs_dat_i[11] I
wbs_dat_i[12] I
wbs_dat_i[13] I
wbs_dat_i[14] I
wbs_dat_i[15] I
wbs_dat_i[16] I
wbs_dat_i[17] I
wbs_dat_i[18] I
wbs_dat_i[19] I
wbs_dat_i[1] I
wbs_dat_i[20] I
wbs_dat_i[21] I
wbs_dat_i[22] I
wbs_dat_i[23] I
wbs_dat_i[24] I
wbs_dat_i[25] I
wbs_dat_i[26] I
wbs_dat_i[27] I
wbs_dat_i[28] I
wbs_dat_i[29] I
wbs_dat_i[2] I
wbs_dat_i[30] I
wbs_dat_i[31] I
wbs_dat_i[3] I
wbs_dat_i[4] I
wbs_dat_i[5] I
wbs_dat_i[6] I
wbs_dat_i[7] I
wbs_dat_i[8] I
wbs_dat_i[9] I
wbs_dat_o[0] O
wbs_dat_o[10] O
wbs_dat_o[11] O
wbs_dat_o[12] O
wbs_dat_o[13] O
wbs_dat_o[14] O
wbs_dat_o[15] O
wbs_dat_o[16] O
wbs_dat_o[17] O
wbs_dat_o[18] O
wbs_dat_o[19] O
wbs_dat_o[1] O
wbs_dat_o[20] O
wbs_dat_o[21] O
wbs_dat_o[22] O
wbs_dat_o[23] O
wbs_dat_o[24] O
wbs_dat_o[25] O
wbs_dat_o[26] O
wbs_dat_o[27] O
wbs_dat_o[28] O
wbs_dat_o[29] O
wbs_dat_o[2] O
wbs_dat_o[30] O
wbs_dat_o[31] O
wbs_dat_o[3] O
wbs_dat_o[4] O
wbs_dat_o[5] O
wbs_dat_o[6] O
wbs_dat_o[7] O
wbs_dat_o[8] O
wbs_dat_o[9] O
wbs_sel_i[0] I
wbs_sel_i[1] I
wbs_sel_i[2] I
wbs_sel_i[3] I
wbs_stb_i I
wbs_we_i I

*D_NET *1 0.479726
*CONN
*P io_in[0] I
*I *419:io_in[0] I *D unigate
*CAP
1 io_in[0] 0.00480315
2 *419:io_in[0] 0.00023556
3 *1:12 0.0631521
4 *1:11 0.0629165
5 *1:9 0.0700192
6 *1:7 0.0748223
7 *419:io_in[0] *98:21 0.000324263
8 *1:9 la_data_out[26] 0.000863435
9 *1:9 la_data_out[31] 0
10 *1:9 *116:8 0
11 *1:9 *120:8 0
12 *1:9 *122:8 0.000275972
13 *1:9 *123:10 0.00193789
14 *1:9 *124:10 0
15 *1:9 *131:10 0
16 *1:9 *132:10 0.00199581
17 *1:9 *138:10 0
18 *1:9 *169:10 0
19 *1:9 *169:12 0
20 *1:9 *172:10 0
21 *1:9 *234:14 0
22 *1:9 *237:16 0
23 *1:9 *247:8 0
24 *1:9 *258:10 0
25 *1:9 *295:8 0
26 *1:9 *386:10 0
27 *1:12 *58:14 0
28 *1:12 *239:11 0.19838
*RES
1 io_in[0] *1:7 37.305 
2 *1:7 *1:9 542.7 
3 *1:9 *1:11 4.5 
4 *1:11 *1:12 724.05 
5 *1:12 *419:io_in[0] 1.845 
*END

*D_NET *2 0.274518
*CONN
*P io_in[10] I
*I *419:io_in[10] I *D unigate
*CAP
1 io_in[10] 0.000436234
2 *419:io_in[10] 2.70792e-05
3 *2:23 0.00070593
4 *2:22 0.00135072
5 *2:11 0.0423966
6 *2:10 0.0417248
7 *2:8 0.00047655
8 *2:7 0.000912784
9 *419:io_in[10] *98:19 1.71343e-05
10 *2:8 *76:11 0.0337048
11 *2:8 *78:11 0.0253418
12 *2:8 *112:11 0.00250136
13 *2:11 *419:io_in[30] 0.000145016
14 *2:11 *419:io_in[33] 0.000100669
15 *2:11 *40:11 0.00027359
16 *2:11 *40:15 0.00850661
17 *2:11 *40:19 0.0049044
18 *2:11 *62:10 7.64784e-05
19 *2:11 *98:12 0.000613765
20 *2:11 *104:12 0
21 *2:22 *21:11 3.54095e-05
22 *2:22 *98:12 0.00330821
23 *2:22 *104:12 0
24 *2:23 *21:11 0.0542143
25 *2:23 *40:11 8.43935e-06
26 *2:23 *98:12 0.000547113
27 *2:23 *98:13 0.05212
28 *2:23 *98:19 6.85373e-05
*RES
1 io_in[10] *2:7 7.605 
2 *2:7 *2:8 85.77 
3 *2:8 *2:10 4.5 
4 *2:10 *2:11 354.87 
5 *2:11 *2:22 18.36 
6 *2:22 *2:23 135.81 
7 *2:23 *419:io_in[10] 4.77 
*END

*D_NET *3 0.280413
*CONN
*P io_in[11] I
*I *419:io_in[11] I *D unigate
*CAP
1 io_in[11] 0.00273278
2 *419:io_in[11] 0.00109532
3 *3:11 0.033597
4 *3:10 0.0352345
5 *419:io_in[11] *41:9 0
6 *3:10 *34:8 0.0117942
7 *3:10 *75:11 2.08301e-05
8 *3:11 *34:11 0.195495
9 *3:11 *46:10 0
10 *3:11 *86:10 0.000443405
*RES
1 io_in[11] *3:10 43.515 
2 *3:10 *3:11 490.23 
3 *3:11 *419:io_in[11] 11.565 
*END

*D_NET *4 0.160422
*CONN
*P io_in[12] I
*I *419:io_in[12] I *D unigate
*CAP
1 io_in[12] 0.00228622
2 *419:io_in[12] 0.00160285
3 *4:11 0.0527866
4 *4:10 0.05347
5 *4:10 *5:8 0.000435825
6 *4:10 *7:11 0.00836461
7 *4:10 *75:11 3.79736e-05
8 *4:10 *76:11 0.000165208
9 *4:10 *114:17 0.000809785
10 *4:11 *51:8 0.0249081
11 *4:11 *76:8 0
12 *4:11 *78:8 0.0155551
*RES
1 io_in[12] *4:10 41.355 
2 *4:10 *4:11 484.11 
3 *4:11 *419:io_in[12] 15.165 
*END

*D_NET *5 0.211228
*CONN
*P io_in[13] I
*I *419:io_in[13] I *D unigate
*CAP
1 io_in[13] 0.000462178
2 *419:io_in[13] 0.00203443
3 *5:11 0.0582417
4 *5:10 0.0562073
5 *5:8 0.000767127
6 *5:7 0.0012293
7 *5:8 *6:8 0.00234405
8 *5:8 *7:11 0.000579655
9 *5:8 *42:13 0.00238535
10 *5:8 *43:11 0.0292556
11 *5:8 *75:11 0.000224722
12 *5:8 *81:17 0.0260807
13 *5:11 *54:8 0.0309802
14 *5:11 *75:8 0
15 *5:11 *76:8 0
16 *4:10 *5:8 0.000435825
*RES
1 io_in[13] *5:7 7.965 
2 *5:7 *5:8 90.45 
3 *5:8 *5:10 4.5 
4 *5:10 *5:11 475.83 
5 *5:11 *419:io_in[13] 18.045 
*END

*D_NET *6 0.235199
*CONN
*P io_in[14] I
*I *419:io_in[14] I *D unigate
*CAP
1 io_in[14] 0.000606588
2 *419:io_in[14] 0.00269277
3 *6:11 0.0632375
4 *6:10 0.0605447
5 *6:8 0.00180976
6 *6:7 0.00241635
7 *419:io_in[14] *44:13 0
8 *419:io_in[14] *81:13 0
9 *6:8 *7:11 0.00137213
10 *6:8 *43:11 0.0459701
11 *6:8 *44:17 0.000940117
12 *6:8 *82:17 0.0532647
13 *6:11 *75:8 0
14 *6:11 *114:14 0
15 *5:8 *6:8 0.00234405
*RES
1 io_in[14] *6:7 8.325 
2 *6:7 *6:8 151.65 
3 *6:8 *6:10 4.5 
4 *6:10 *6:11 470.07 
5 *6:11 *419:io_in[14] 22.995 
*END

*D_NET *7 0.229746
*CONN
*P io_in[15] I
*I *419:io_in[15] I *D unigate
*CAP
1 io_in[15] 0.00290494
2 *419:io_in[15] 0.00306106
3 *7:14 0.0566924
4 *7:13 0.0536313
5 *7:11 0.0158873
6 *7:10 0.0187923
7 *7:11 *42:13 0.0230263
8 *7:11 *43:11 0.00175967
9 *7:11 *44:17 0
10 *7:11 *81:17 0.00752931
11 *7:11 *82:17 0.000608248
12 *7:14 io_oeb[11] 0.00129034
13 *7:14 *41:10 0
14 *7:14 *57:10 0.034246
15 *7:14 *114:14 0
16 *4:10 *7:11 0.00836461
17 *5:8 *7:11 0.000579655
18 *6:8 *7:11 0.00137213
*RES
1 io_in[15] *7:10 32.355 
2 *7:10 *7:11 193.77 
3 *7:11 *7:13 4.5 
4 *7:13 *7:14 463.05 
5 *7:14 *419:io_in[15] 25.515 
*END

*D_NET *8 0.178487
*CONN
*P io_in[16] I
*I *419:io_in[16] I *D unigate
*CAP
1 io_in[16] 0.000578228
2 *419:io_in[16] 0.000166616
3 *8:11 0.0289959
4 *8:10 0.0288293
5 *8:8 0.0232323
6 *8:7 0.0238106
7 *8:8 *16:8 0.0210257
8 *8:8 *83:14 0.0518481
9 *8:11 *83:10 0
*RES
1 io_in[16] *8:7 8.685 
2 *8:7 *8:8 333.81 
3 *8:8 *8:10 4.5 
4 *8:10 *8:11 217.35 
5 *8:11 *419:io_in[16] 1.305 
*END

*D_NET *9 0.131319
*CONN
*P io_in[17] I
*I *419:io_in[17] I *D unigate
*CAP
1 io_in[17] 0.000556868
2 *419:io_in[17] 9.76714e-05
3 *9:19 0.0292316
4 *9:18 0.0291339
5 *9:16 0.017911
6 *9:15 0.0184679
7 *9:16 *14:16 0.0118898
8 *9:16 *15:8 0.00153154
9 *9:16 *17:11 0.00146999
10 *9:16 *45:14 0.0150402
11 *9:16 *92:14 0.00598845
12 *9:19 *46:11 0
*RES
1 io_in[17] *9:15 9.585 
2 *9:15 *9:16 218.25 
3 *9:16 *9:18 4.5 
4 *9:18 *9:19 218.61 
5 *9:19 *419:io_in[17] 0.765 
*END

*D_NET *10 0.0969855
*CONN
*P io_in[18] I
*I *419:io_in[18] I *D unigate
*CAP
1 io_in[18] 0.00295835
2 *419:io_in[18] 0.00320295
3 *10:14 0.0127508
4 *10:13 0.00954787
5 *10:11 0.0250338
6 *10:10 0.0279921
7 *419:io_in[18] *49:11 0
8 *10:10 *46:14 0.011189
9 *10:14 *41:10 0
10 *10:14 *87:14 0.00431054
*RES
1 io_in[18] *10:10 45.135 
2 *10:10 *10:11 191.97 
3 *10:11 *10:13 4.5 
4 *10:13 *10:14 76.95 
5 *10:14 *419:io_in[18] 26.325 
*END

*D_NET *11 0.0645624
*CONN
*P io_in[19] I
*I *419:io_in[19] I *D unigate
*CAP
1 io_in[19] 0.00146001
2 *419:io_in[19] 0.00350858
3 *11:11 0.0281942
4 *11:10 0.0261456
5 *419:io_in[19] *42:10 0.000821122
6 *419:io_in[19] *86:10 0
7 *419:io_in[19] *92:11 0.00380648
8 *11:10 *46:14 0.000325545
9 *11:10 *49:11 0.000300859
10 *11:11 *48:7 0
*RES
1 io_in[19] *11:10 20.475 
2 *11:10 *11:11 188.19 
3 *11:11 *419:io_in[19] 40.365 
*END

*D_NET *12 0.671284
*CONN
*P io_in[1] I
*I *419:io_in[1] I *D unigate
*CAP
1 io_in[1] 0.000298503
2 *419:io_in[1] 0.00024844
3 *12:11 0.0385685
4 *12:10 0.0383201
5 *12:8 0.0348395
6 *12:7 0.035138
7 *12:8 *112:11 0.101538
8 *12:8 *114:17 0.0514527
9 *12:8 *308:13 0.000424303
10 *12:8 *310:13 0.157638
11 *12:11 *38:11 0.201709
12 *12:11 *101:8 0.0111089
*RES
1 io_in[1] *12:7 6.885 
2 *12:7 *12:8 661.95 
3 *12:8 *12:10 4.5 
4 *12:10 *12:11 567.63 
5 *12:11 *419:io_in[1] 5.985 
*END

*D_NET *13 0.102664
*CONN
*P io_in[20] I
*I *419:io_in[20] I *D unigate
*CAP
1 io_in[20] 0.0254118
2 *419:io_in[20] 0.00421286
3 *13:8 0.0173438
4 *13:7 0.0131309
5 *13:5 0.0254118
6 *419:io_in[20] *86:11 0
7 *13:8 *44:14 0.0171528
*RES
1 io_in[20] *13:5 194.445 
2 *13:5 *13:7 4.5 
3 *13:7 *13:8 121.59 
4 *13:8 *419:io_in[20] 33.615 
*END

*D_NET *14 0.206684
*CONN
*P io_in[21] I
*I *419:io_in[21] I *D unigate
*CAP
1 io_in[21] 0.000595812
2 *419:io_in[21] 0.000166616
3 *14:19 0.0292716
4 *14:18 0.029105
5 *14:16 0.00175062
6 *14:15 0.00234643
7 *14:16 *15:8 0.0937403
8 *14:16 *92:14 0.0378178
9 *9:16 *14:16 0.0118898
*RES
1 io_in[21] *14:15 9.765 
2 *14:15 *14:16 234.63 
3 *14:16 *14:18 4.5 
4 *14:18 *14:19 218.43 
5 *14:19 *419:io_in[21] 1.305 
*END

*D_NET *15 0.313666
*CONN
*P io_in[22] I
*I *419:io_in[22] I *D unigate
*CAP
1 io_in[22] 0.000447343
2 *419:io_in[22] 9.76714e-05
3 *15:11 0.0291318
4 *15:10 0.0290341
5 *15:8 0.00296081
6 *15:7 0.00340816
7 *15:8 *17:11 0.13991
8 *15:8 *92:14 0.0134041
9 *9:16 *15:8 0.00153154
10 *14:16 *15:8 0.0937403
*RES
1 io_in[22] *15:7 7.785 
2 *15:7 *15:8 350.19 
3 *15:8 *15:10 4.5 
4 *15:10 *15:11 218.25 
5 *15:11 *419:io_in[22] 0.765 
*END

*D_NET *16 0.220964
*CONN
*P io_in[23] I
*I *419:io_in[23] I *D unigate
*CAP
1 io_in[23] 0.000555232
2 *419:io_in[23] 0.00109369
3 *16:11 0.0289385
4 *16:10 0.0278448
5 *16:8 0.0331628
6 *16:7 0.033718
7 *419:io_in[23] *59:8 0.000677126
8 *419:io_in[23] *92:8 5.61605e-05
9 *16:8 *17:11 0.0506858
10 *16:8 *83:14 0.0232058
11 *16:11 *91:9 0
12 *8:8 *16:8 0.0210257
*RES
1 io_in[23] *16:7 8.505 
2 *16:7 *16:8 463.23 
3 *16:8 *16:10 4.5 
4 *16:10 *16:11 211.05 
5 *16:11 *419:io_in[23] 17.235 
*END

*D_NET *17 0.334244
*CONN
*P io_in[24] I
*I *419:io_in[24] I *D unigate
*CAP
1 io_in[24] 0.00215233
2 *419:io_in[24] 0.0014332
3 *17:14 0.0293678
4 *17:13 0.0279346
5 *17:11 0.0198474
6 *17:10 0.0219997
7 *419:io_in[24] *55:13 0
8 *419:io_in[24] *59:8 0.0014983
9 *419:io_in[24] *92:8 4.37891e-05
10 *419:io_in[24] *95:8 0
11 *17:11 *45:14 0.025249
12 *17:11 *83:14 2.3715e-05
13 *17:11 *92:14 0.0126281
14 *17:14 *54:7 0
15 *9:16 *17:11 0.00146999
16 *15:8 *17:11 0.13991
17 *16:8 *17:11 0.0506858
*RES
1 io_in[24] *17:10 25.155 
2 *17:10 *17:11 550.89 
3 *17:11 *17:13 4.5 
4 *17:13 *17:14 211.59 
5 *17:14 *419:io_in[24] 19.395 
*END

*D_NET *18 0.234831
*CONN
*P io_in[25] I
*I *419:io_in[25] I *D unigate
*CAP
1 io_in[25] 0.000125876
2 *419:io_in[25] 0.00489188
3 *18:19 0.019993
4 *18:18 0.0151011
5 *18:16 0.0139468
6 *18:15 0.0139468
7 *18:13 0.0686709
8 *18:11 0.0687968
9 *18:19 *82:14 0.0293582
*RES
1 io_in[25] *18:11 1.395 
2 *18:11 *18:13 435.51 
3 *18:13 *18:15 4.5 
4 *18:15 *18:16 106.65 
5 *18:16 *18:18 4.5 
6 *18:18 *18:19 131.13 
7 *18:19 *419:io_in[25] 39.015 
*END

*D_NET *19 0.16738
*CONN
*P io_in[26] I
*I *419:io_in[26] I *D unigate
*CAP
1 io_in[26] 0.00177706
2 *419:io_in[26] 0.000166616
3 *19:12 0.0099411
4 *19:11 0.00977449
5 *19:9 0.071972
6 *19:7 0.0737491
*RES
1 io_in[26] *19:7 13.185 
2 *19:7 *19:9 561.78 
3 *19:9 *19:11 4.5 
4 *19:11 *19:12 71.55 
5 *19:12 *419:io_in[26] 1.305 
*END

*D_NET *20 0.211055
*CONN
*P io_in[27] I
*I *419:io_in[27] I *D unigate
*CAP
1 io_in[27] 0.000250008
2 *419:io_in[27] 0.000365315
3 *20:13 0.0619121
4 *20:11 0.0617968
5 *20:13 *101:8 0.0867303
*RES
1 io_in[27] *20:11 2.295 
2 *20:11 *20:13 583.47 
3 *20:13 *419:io_in[27] 6.525 
*END

*D_NET *21 0.212202
*CONN
*P io_in[28] I
*I *419:io_in[28] I *D unigate
*CAP
1 io_in[28] 0.0014284
2 *419:io_in[28] 5.38943e-05
3 *21:11 0.0583323
4 *21:10 0.0582784
5 *21:8 0.00817542
6 *21:7 0.00960381
7 *21:11 *22:11 0
8 *21:11 *58:9 0.0067204
9 *21:11 *98:12 8.43935e-06
10 *21:11 *98:19 0.000944254
11 *21:11 *98:21 0.0144072
12 *21:11 *104:12 0
13 *2:22 *21:11 3.54095e-05
14 *2:23 *21:11 0.0542143
*RES
1 io_in[28] *21:7 13.365 
2 *21:7 *21:8 62.73 
3 *21:8 *21:10 4.5 
4 *21:10 *21:11 582.21 
5 *21:11 *419:io_in[28] 4.95 
*END

*D_NET *22 0.252799
*CONN
*P io_in[29] I
*I *419:io_in[29] I *D unigate
*CAP
1 io_in[29] 0.00192467
2 *419:io_in[29] 0.000264596
3 *22:11 0.058501
4 *22:10 0.0582364
5 *22:8 0.0168149
6 *22:7 0.0187396
7 *22:11 *79:14 0.00418928
8 *22:11 *104:12 0.0941283
9 *21:11 *22:11 0
*RES
1 io_in[29] *22:7 18.765 
2 *22:7 *22:8 129.33 
3 *22:8 *22:10 4.5 
4 *22:10 *22:11 584.37 
5 *22:11 *419:io_in[29] 15.39 
*END

*D_NET *23 0.304254
*CONN
*P io_in[2] I
*I *419:io_in[2] I *D unigate
*CAP
1 io_in[2] 0.000167227
2 *419:io_in[2] 0.000209438
3 *23:16 0.0753969
4 *23:15 0.0751874
5 *23:13 0.0747923
6 *23:11 0.0749596
7 *419:io_in[2] *98:21 0.000319355
8 *23:16 *175:13 0.00322209
*RES
1 io_in[2] *23:11 2.115 
2 *23:11 *23:13 560.61 
3 *23:13 *23:15 4.5 
4 *23:15 *23:16 597.33 
5 *23:16 *419:io_in[2] 10.935 
*END

*D_NET *24 0.216215
*CONN
*P io_in[30] I
*I *419:io_in[30] I *D unigate
*CAP
1 io_in[30] 0.000113196
2 *419:io_in[30] 0.000168431
3 *24:16 0.0250908
4 *24:15 0.0249224
5 *24:13 0.0743908
6 *24:11 0.074504
7 *419:io_in[30] *40:11 0.000145016
8 *24:13 *419:la_data_in[17] 0
9 *24:13 *419:la_data_in[27] 0
10 *24:13 *137:16 0.000783082
11 *24:13 *142:14 0.00345273
12 *24:13 *149:16 0
13 *24:13 *159:14 0.00999592
14 *24:13 *186:8 0
15 *24:13 *254:14 0
16 *24:13 *313:16 0
17 *24:13 *322:12 0
18 *24:13 *326:16 0
19 *24:13 *366:16 0.00250367
20 *24:13 *369:16 0
21 *2:11 *419:io_in[30] 0.000145016
*RES
1 io_in[30] *24:11 1.395 
2 *24:11 *24:13 604.35 
3 *24:13 *24:15 4.5 
4 *24:15 *24:16 200.43 
5 *24:16 *419:io_in[30] 10.935 
*END

*D_NET *25 0.302703
*CONN
*P io_in[31] I
*I *419:io_in[31] I *D unigate
*CAP
1 io_in[31] 0.00177706
2 *419:io_in[31] 7.93708e-05
3 *25:12 0.06911
4 *25:11 0.0690307
5 *25:9 0.0804644
6 *25:7 0.0822415
7 *25:9 *284:14 0
8 *25:9 *362:14 0
9 *25:9 *417:16 0
*RES
1 io_in[31] *25:7 13.185 
2 *25:7 *25:9 600.3 
3 *25:9 *25:11 4.5 
4 *25:11 *25:12 268.11 
5 *25:12 *419:io_in[31] 9.585 
*END

*D_NET *26 0.261418
*CONN
*P io_in[32] I
*I *419:io_in[32] I *D unigate
*CAP
1 io_in[32] 0.000323383
2 *419:io_in[32] 0.000102352
3 *26:16 0.0441447
4 *26:15 0.0440424
5 *26:13 0.0830919
6 *26:11 0.0834153
7 *26:16 *225:11 0.00173836
8 *26:16 *289:19 0.0045598
*RES
1 io_in[32] *26:11 3.015 
2 *26:11 *26:13 620.55 
3 *26:13 *26:15 4.5 
4 *26:15 *26:16 338.31 
5 *26:16 *419:io_in[32] 9.765 
*END

*D_NET *27 0.282464
*CONN
*P io_in[33] I
*I *419:io_in[33] I *D unigate
*CAP
1 io_in[33] 0.000242542
2 *419:io_in[33] 6.00164e-06
3 *27:16 0.0524252
4 *27:15 0.0524192
5 *27:13 0.0840455
6 *27:11 0.0842881
7 *419:io_in[33] *40:15 0.000100669
8 *27:16 *228:11 0.000845247
9 *27:16 *292:11 0.0079911
10 *2:11 *419:io_in[33] 0.000100669
*RES
1 io_in[33] *27:11 2.475 
2 *27:11 *27:13 628.65 
3 *27:13 *27:15 4.5 
4 *27:15 *27:16 405.45 
5 *27:16 *419:io_in[33] 9.27 
*END

*D_NET *28 0.312622
*CONN
*P io_in[34] I
*I *419:io_in[34] I *D unigate
*CAP
1 io_in[34] 0.000177869
2 *419:io_in[34] 0.000241794
3 *28:16 0.061507
4 *28:15 0.0612652
5 *28:13 0.0846613
6 *28:11 0.0848392
7 *419:io_in[34] *40:15 0.000538061
8 *28:16 *65:11 0
9 *28:16 *140:13 0.0174163
10 *28:16 *230:9 0.00151507
11 *28:16 *294:17 0.000459764
*RES
1 io_in[34] *28:11 1.935 
2 *28:11 *28:13 634.05 
3 *28:13 *28:15 4.5 
4 *28:15 *28:16 473.31 
5 *28:16 *419:io_in[34] 11.475 
*END

*D_NET *29 0.40915
*CONN
*P io_in[35] I
*I *419:io_in[35] I *D unigate
*CAP
1 io_in[35] 0.000113196
2 *419:io_in[35] 0.000209427
3 *29:16 0.117759
4 *29:15 0.11755
5 *29:13 0.0856898
6 *29:11 0.085803
7 *419:io_in[35] *40:15 0.000319365
8 *29:13 *268:10 0
9 *29:13 *395:10 0
10 *29:16 *233:9 0.00170644
*RES
1 io_in[35] *29:11 1.395 
2 *29:11 *29:13 642.15 
3 *29:13 *29:15 4.5 
4 *29:15 *29:16 540.81 
5 *29:16 *419:io_in[35] 10.935 
*END

*D_NET *30 0.326692
*CONN
*P io_in[36] I
*I *419:io_in[36] I *D unigate
*CAP
1 io_in[36] 0.00177706
2 *419:io_in[36] 0.00017706
3 *30:12 0.0765513
4 *30:11 0.0763742
5 *30:9 0.0849674
6 *30:7 0.0867445
7 *419:io_in[36] *40:15 0.000100669
*RES
1 io_in[36] *30:7 13.185 
2 *30:7 *30:9 637.38 
3 *30:9 *30:11 4.5 
4 *30:11 *30:12 608.31 
5 *30:12 *419:io_in[36] 10.395 
*END

*D_NET *31 0.386635
*CONN
*P io_in[37] I
*I *419:io_in[37] I *D unigate
*CAP
1 io_in[37] 0.000323383
2 *419:io_in[37] 0.000102352
3 *31:16 0.0856257
4 *31:15 0.0855234
5 *31:13 0.0876436
6 *31:11 0.087967
7 *31:16 *203:11 0.0394497
*RES
1 io_in[37] *31:11 3.015 
2 *31:11 *31:13 658.35 
3 *31:13 *31:15 4.5 
4 *31:15 *31:16 678.33 
5 *31:16 *419:io_in[37] 9.765 
*END

*D_NET *32 0.283915
*CONN
*P io_in[3] I
*I *419:io_in[3] I *D unigate
*CAP
1 io_in[3] 0.0739214
2 *419:io_in[3] 0.000231016
3 *32:8 0.0670662
4 *32:7 0.0668351
5 *32:5 0.0739214
6 *419:io_in[3] *98:21 0.000465152
7 *32:8 *176:13 0.00147415
*RES
1 io_in[3] *32:5 552.645 
2 *32:5 *32:7 4.5 
3 *32:7 *32:8 532.53 
4 *32:8 *419:io_in[3] 11.295 
*END

*D_NET *33 0.268849
*CONN
*P io_in[4] I
*I *419:io_in[4] I *D unigate
*CAP
1 io_in[4] 0.0002319
2 *419:io_in[4] 0.000128458
3 *33:16 0.0607786
4 *33:15 0.0606502
5 *33:13 0.0734139
6 *33:11 0.0736458
7 *33:16 *70:11 0
*RES
1 io_in[4] *33:11 2.655 
2 *33:11 *33:13 548.19 
3 *33:13 *33:15 4.5 
4 *33:15 *33:16 470.43 
5 *33:16 *419:io_in[4] 9.945 
*END

*D_NET *34 0.542601
*CONN
*P io_in[5] I
*I *419:io_in[5] I *D unigate
*CAP
1 io_in[5] 0.000647069
2 *419:io_in[5] 0.00102439
3 *34:11 0.028338
4 *34:10 0.0273137
5 *34:8 0.0262827
6 *34:7 0.0269297
7 *34:8 *75:11 0.0702648
8 *34:8 *112:11 0
9 *34:8 *302:11 0.0844748
10 *34:11 *59:8 0.0700367
11 *3:10 *34:8 0.0117942
12 *3:11 *34:11 0.195495
*RES
1 io_in[5] *34:7 8.505 
2 *34:7 *34:8 412.47 
3 *34:8 *34:10 4.5 
4 *34:10 *34:11 535.77 
5 *34:11 *419:io_in[5] 11.385 